$# LS-DYNA Keyword file created by LS-PrePost(R) V4.7.7 - 17Feb2020
$# Created on May-21-2026 (10:37:16)
*KEYWORD   
*TITLE
$#                                                                         title
bolt_dummy
*DATABASE_CROSS_SECTION_PLANE_ID
$#    csid                                                                 title
         1                                                                      
$#    psid       xct       yct       zct       xch       ych       zch    radius
         0      -8.0   5.82562  -1.43601  -3.86058   5.82562  -1.43601       0.0
$#    xhev      yhev      zhev      lenl      lenm        id     itype     
       0.0       0.0       0.0       0.0       0.0         0         0
*PART
$#                                                                         title
bolt_head
$#     pid     secid       mid     eosid      hgid      grav    adpopt      tmid
         1         1         1         0         0         0         0         0
*SECTION_SOLID_TITLE
SOLID
$#   secid    elform       aet   
         1         1         0
*MAT_ELASTIC_TITLE
Steel
$#     mid        ro         e        pr        da        db  not used        
         17.83000E-9  210000.0       0.3       0.0       0.0       0.0
*PART
$#                                                                         title
bolt_shank
$#     pid     secid       mid     eosid      hgid      grav    adpopt      tmid
         2         1         1         0         0         0         0         0
*PART
$#                                                                         title
bolt_nut
$#     pid     secid       mid     eosid      hgid      grav    adpopt      tmid
         3         1         1         0         0         0         0         0
*SET_NODE_LIST_TITLE
bolt_head
$#     sid       da1       da2       da3       da4    solver      
         1       0.0       0.0       0.0       0.0MECH
$#    nid1      nid2      nid3      nid4      nid5      nid6      nid7      nid8
        28        29        30        31        32        33        34        35
        36        37        38        39        40        41        42        43
        44        45        46        47        48        49        50        51
        52        53        54        63        64        65        66        67
        68        69        70       602       603       604       605       606
       607       608       609       610       611       612       613       614
       615       616       617       618       619       620       621       622
       623       624       625       626       627       628       629       630
       631       632       633       634       635       636       637       638
       639       640       641       642       643       644       645       646
       647       648       649       650       651       652       653       654
       655       656       657       658       659       660       661       662
       663       664       665       666       667       668       669       670
       671       672       673       674       675       676       677       678
       679       680       681       682       683       684       685       686
       687       688       689       690       691       692       693       694
       695       696       697       698       699       700       701       702
       703       704       705       706       707       708       709       710
       711       712       713       714       715       716       717       718
       719       720       721       722       723       724       725       726
$ ... 1459 like lines cut
*SET_NODE_LIST_TITLE
bolt_shank
$#     sid       da1       da2       da3       da4    solver      
         2       0.0       0.0       0.0       0.0MECH
$#    nid1      nid2      nid3      nid4      nid5      nid6      nid7      nid8
      1419      1420      1421      1422      1423      1424      1425      1426
      1427      1428      1429      1430      1431      1432      1433      1434
      1435      1436      1437      1438      1439      1440      1441      1442
      1443      1444      1445      1446      1447      1448      1449      1450
      1451      1452      1453      1454      1455      1456      1457      1458
      1459      1460      1461      1462      1463      1464      1465      1466
      1467      1468      1469      1470      1471      1472      1473      1474
      1475      1476      1477      1478      1479      1480      1481      1482
      1483      1484      1485      1486      1487      1488      8853      8854
      8855      8856      8857      8858      8859      8860      8861      8862
      8863      8864      8865      8866      8867      8868      8869      8870
      8871      8872      8873      8874      8875      8876      8877      8878
      8879      8880      8881      8882      8883      8884      8885      8886
      8887      8888      8889      8890      8891      8892      8893      8894
      8895      8896      8897      8898      8899      8900      8901      8902
      8903      8904      8905      8906      8907      8908      8909      8910
      8911      8912      8913      8914      8915      8916      8917      8918
      8919      8920      8921      8922      8923      8924      8925      8926
      8927      8928      8929      8930      8931      8932      8933      8934
      8935      8936      8937      8938      8939      8940      8941      8942
$ ... 413 like lines cut
*SET_NODE_LIST_TITLE
bolt_nut
$#     sid       da1       da2       da3       da4    solver      
         3       0.0       0.0       0.0       0.0MECH
$#    nid1      nid2      nid3      nid4      nid5      nid6      nid7      nid8
         1         2         3         4         5         6         7         8
         9        10        11        12        13        14        15        16
        17        18        19        20        21        22        23        24
        25        26        27        55        56        57        58        59
        60        61        62        71        72        73        74        75
        76        77        78        79        80        81        82        83
        84        85        86        87        88        89        90        91
        92        93        94        95        96        97        98        99
       100       101       102       103       104       105       106       107
       108       109       110       111       112       113       114       115
       116       117       118       119       120       121       122       123
       124       125       126       127       128       129       130       131
       132       133       134       135       136       137       138       139
       140       141       142       143       144       145       146       147
       148       149       150       151       152       153       154       155
       156       157       158       159       160       161       162       163
       164       165       166       167       168       169       170       171
       172       173       174       175       176       177       178       179
       180       181       182       183       184       185       186       187
       188       189       190       191       192       193       194       195
$ ... 1053 like lines cut
*SET_NODE_LIST_TITLE
bolt_bottom
$#     sid       da1       da2       da3       da4    solver      
         4       0.0       0.0       0.0       0.0MECH
$#    nid1      nid2      nid3      nid4      nid5      nid6      nid7      nid8
       184      2046       172         7      2047       173      2048       174
      2049       175      2050       176      2051       177      2052       178
      2053       179      2054       180      2055       181      2056       182
      2057       183       190         8       196      2058       189         9
      2059       188      2060       187      2061       186      2062       185
       195      2063      2064      2065      2066      2067       194      2068
      2069      2070      2071      2072       193      2073      2074      2075
      2076      2077       192      2078      2079      2080      2081      2082
       191      2083      2084      2085      2086      2087       237      2244
       238      2245       239      2246       240      2247       241      2248
       242      2249       243      2250      2251       244      2252       245
      2253       246      2254       247      2255       248       249        12
      2256       250      2257       251      2258       252      2259       253
      2260       254      2261       255      2262      2263      2264      2265
      2266      2267      2268      2269      2270      2271      2272      2273
      2274      2275      2276      2277      2278      2279      2280      2281
      2282      2283      2284      2285      2809       301      2810       302
      2811       303      2812       304      2813       305      2814       306
      2815       307      2816       308      2817       309      2818       310
      2819       311      2820       312       313        14       318      2821
$ ... 24 like lines cut
*SET_NODE_LIST_TITLE
bolt_top
$#     sid       da1       da2       da3       da4    solver      
         5       0.0       0.0       0.0       0.0MECH
$#    nid1      nid2      nid3      nid4      nid5      nid6      nid7      nid8
       681      4677       669        31      4678       670      4679       671
      4680       672      4681       673      4682       674      4683       675
      4684       676      4685       677      4686       678      4687       679
      4688       680       693        32       687      4689       686        33
      4690       685      4691       684      4692       683      4693       682
       688      4694      4695      4696      4697      4698       689      4699
      4700      4701      4702      4703       690      4704      4705      4706
      4707      4708       691      4709      4710      4711      4712      4713
       692      4714      4715      4716      4717      4718       806      5137
       807      5138       808      5139       809      5140       810      5141
       811      5142       812      5143      5144       813      5145       814
      5146       815      5147       816      5148       817       818        41
      5149       819      5150       820      5151       821      5152       822
      5153       823      5154       824      5155      5156      5157      5158
      5159      5160      5161      5162      5163      5164      5165      5166
      5167      5168      5169      5170      5171      5172      5173      5174
      5175      5176      5177      5178       845      5445       844        42
       846      5446       847      5447       848      5448       849      5449
       850      5450       851      5451      5452       852      5453       853
      5454       854      5455       855      5456       856      5457      5458
$ ... 37 like lines cut
*SET_PART_LIST_TITLE
bolt_dummy_all
$#     sid       da1       da2       da3       da4    solver      
         1       0.0       0.0       0.0       0.0MECH
$#    pid1      pid2      pid3      pid4      pid5      pid6      pid7      pid8
         1         2         3         0         0         0         0         0
*SET_SEGMENT_TITLE
bolt_head
$#     sid       da1       da2       da3       da4    solver      
         1       0.0       0.0       0.0       0.0MECH
$#      n1        n2        n3        n4        a1        a2        a3        a4
      6381      6393      6394      6382       0.0       0.0       0.0       0.0
      6382      6394      6395      6383       0.0       0.0       0.0       0.0
      6383      6395      6396      6384       0.0       0.0       0.0       0.0
      6384      6396      6397      6385       0.0       0.0       0.0       0.0
      6385      6397      6398      6386       0.0       0.0       0.0       0.0
      6386      6398      6399      6387       0.0       0.0       0.0       0.0
      6387      6399      6400      6388       0.0       0.0       0.0       0.0
      6388      6400      6401      6389       0.0       0.0       0.0       0.0
      6389      6401      6402      6390       0.0       0.0       0.0       0.0
      6390      6402      6403      6391       0.0       0.0       0.0       0.0
      6391      6403      6404      6392       0.0       0.0       0.0       0.0
      6393      6405      6406      6394       0.0       0.0       0.0       0.0
      5883      5884      5923      5924       0.0       0.0       0.0       0.0
      6394      6406      6407      6395       0.0       0.0       0.0       0.0
      5884      5885      5922      5923       0.0       0.0       0.0       0.0
      6395      6407      6408      6396       0.0       0.0       0.0       0.0
      5885      5886      5921      5922       0.0       0.0       0.0       0.0
      6396      6408      6409      6397       0.0       0.0       0.0       0.0
      5886      5887      5920      5921       0.0       0.0       0.0       0.0
      6397      6409      6410      6398       0.0       0.0       0.0       0.0
$ ... 408 like lines cut
*SET_SEGMENT_TITLE
bolt_nut
$#     sid       da1       da2       da3       da4    solver      
         2       0.0       0.0       0.0       0.0MECH
$#      n1        n2        n3        n4        a1        a2        a3        a4
      3931       512       511      3932       0.0       0.0       0.0       0.0
      3930       513       512      3931       0.0       0.0       0.0       0.0
      3929       514       513      3930       0.0       0.0       0.0       0.0
      2832      2810      2809      2826       0.0       0.0       0.0       0.0
      3928       515       514      3929       0.0       0.0       0.0       0.0
      2838      2811      2810      2832       0.0       0.0       0.0       0.0
      3927       516       515      3928       0.0       0.0       0.0       0.0
      2844      2812      2811      2838       0.0       0.0       0.0       0.0
      2067      2047      2046      2062       0.0       0.0       0.0       0.0
      3926       517       516      3927       0.0       0.0       0.0       0.0
      2850      2813      2812      2844       0.0       0.0       0.0       0.0
      2072      2048      2047      2067       0.0       0.0       0.0       0.0
      3925       518       517      3926       0.0       0.0       0.0       0.0
      2815      2814      2813      2850       0.0       0.0       0.0       0.0
      2077      2049      2048      2072       0.0       0.0       0.0       0.0
      3924       519       518      3925       0.0       0.0       0.0       0.0
      2082      2050      2049      2077       0.0       0.0       0.0       0.0
      3923       520       519      3924       0.0       0.0       0.0       0.0
       536        26       522      3921       0.0       0.0       0.0       0.0
      2816      2815      2850      2849       0.0       0.0       0.0       0.0
$ ... 304 like lines cut
*SET_SOLID_TITLE
bolt_head
$#     sid    solver      
         1MECH
$#      k1        k2        k3        k4        k5        k6        k7        k8
      5882      5883      5884      5885      5886      5887      5888      5889
      5890      5891      5892      5893      5894      5895      5896      5897
      5898      5899      5900      5901      5902      5903      5904      5905
      5906      5907      5908      5909      5910      5911      5912      5913
      5914      5915      5916      5917      5918      5919      5920      5921
      5922      5923      5924      5925      5926      5927      5928      5929
      5930      5931      5932      5933      5934      5935      5936      5937
      5938      5939      5940      5941      5942      5943      5944      5945
      5946      5947      5948      5949      5950      5951      5952      5953
      5954      5955      5956      5957      5958      5959      5960      5961
      5962      5963      5964      5965      5966      5967      5968      5969
      5970      5971      5972      5973      5974      5975      5976      5977
      5978      5979      5980      5981      5982      5983      5984      5985
      5986      5987      5988      5989      5990      5991      5992      5993
      5994      5995      5996      5997      5998      5999      6000      6001
      6002      6003      6004      6005      6006      6007      6008      6009
      6010      6011      6012      6013      6014      6015      6016      6017
      6018      6019      6020      6021      6022      6023      6024      6025
      6026      6027      6028      6029      6030      6031      6032      6033
      6034      6035      6036      6037      6038      6039      6040      6041
$ ... 1299 like lines cut
*SET_SOLID_TITLE
bolt_shank
$#     sid    solver      
         2MECH
$#      k1        k2        k3        k4        k5        k6        k7        k8
     17290     17291     17292     17293     17294     17295     17296     17297
     17298     17299     17300     17301     17302     17303     17304     17305
     17306     17307     17308     17309     17310     17311     17312     17313
     17314     17315     17316     17317     17318     17319     17320     17321
     17322     17323     17324     17325     17326     17327     17328     17329
     17330     17331     17332     17333     17334     17335     17336     17337
     17338     17339     17340     17341     17342     17343     17344     17345
     17346     17347     17348     17349     17350     17351     17352     17353
     17354     17355     17356     17357     17358     17359     17360     17361
     17362     17363     17364     17365     17366     17367     17368     17369
     17370     17371     17372     17373     17374     17375     17376     17377
     17378     17379     17380     17381     17382     17383     17384     17385
     17386     17387     17388     17389     17390     17391     17392     17393
     17394     17395     17396     17397     17398     17399     17400     17401
     17402     17403     17404     17405     17406     17407     17408     17409
     17410     17411     17412     17413     17414     17415     17416     17417
     17418     17419     17420     17421     17422     17423     17424     17425
     17426     17427     17428     17429     17430     17431     17432     17433
     17434     17435     17436     17437     17438     17439     17440     17441
     17442     17443     17444     17445     17446     17447     17448     17449
$ ... 393 like lines cut
*SET_SOLID_TITLE
bolt_nut
$#     sid    solver      
         3MECH
$#      k1        k2        k3        k4        k5        k6        k7        k8
         1         2         3         4         5         6         7         8
         9        10        11        12        13        14        15        16
        17        18        19        20        21        22        23        24
        25        26        27        28        29        30        31        32
        33        34        35        36        37        38        39        40
        41        42        43        44        45        46        47        48
        49        50        51        52        53        54        55        56
        57        58        59        60        61        62        63        64
        65        66        67        68        69        70        71        72
        73        74        75        76        77        78        79        80
        81        82        83        84        85        86        87        88
        89        90        91        92        93        94        95        96
        97        98        99       100       101       102       103       104
       105       106       107       108       109       110       111       112
       113       114       115       116       117       118       119       120
       121       122       123       124       125       126       127       128
       129       130       131       132       133       134       135       136
       137       138       139       140       141       142       143       144
       145       146       147       148       149       150       151       152
       153       154       155       156       157       158       159       160
$ ... 912 like lines cut
*ELEMENT_SOLID
$#   eid     pid      n1      n2      n3      n4      n5      n6      n7      n8
       1       3    1607    1608   10204   10195      76      75    1538    1537
       2       3    1608    1609   10205   10204      75      74    1539    1538
       3       3    1609    1610   10206   10205      74      73    1540    1539
       4       3    1610    1611   10207   10206      73      72    1541    1540
       5       3    1611    1612   10208   10207      72      71    1542    1541
       6       3    1612      90    1579   10208      71       1      89    1542
       7       3    1613    1614   10190   10189    1607    1608   10204   10195
       8       3    1614    1615   10191   10190    1608    1609   10205   10204
       9       3    1615    1616   10192   10191    1609    1610   10206   10205
      10       3    1616    1617   10193   10192    1610    1611   10207   10206
      11       3    1617    1618   10194   10193    1611    1612   10208   10207
      12       3    1618      91    1580   10194    1612      90    1579   10208
      13       3    1655     100    1619   10209      94       2      82    1543
      14       3   10209    1619    1620   10210    1543      82      81    1544
      15       3   10210    1620    1621   10211    1544      81      80    1545
      16       3   10211    1621    1622   10212    1545      80      79    1546
      17       3   10212    1622    1623   10213    1546      79      78    1547
      18       3   10213    1623    1624   10214    1547      78      77    1548
      19       3   10214    1624    1607   10195    1548      77      76    1537
      20       3    1656     101    1625   10201    1655     100    1619   10209
$ ... 21284 like lines cut
*NODE
$#   nid               x               y               z      tc      rc  
       1           -15.0             6.0             0.0       0       0
       2           -15.0    7.019235e-07            -6.0       0       0
       3           -15.0    7.019235e-07             0.0       0       0
       4           -20.0    9.358979e-07            -6.0       0       0
       5           -20.0        6.000001             0.0       0       0
       6           -20.0    9.358979e-07             0.0       0       0
       7           -34.0    1.591026e-06            -6.0       0       0
       8           -34.0        6.000001             0.0       0       0
       9           -34.0    1.591026e-06             0.0       0       0
      10           -20.0    9.358979e-07             6.0       0       0
      11           -15.0    7.019235e-07             6.0       0       0
      12           -34.0       -5.999999             0.0       0       0
      13           -20.0       -5.999999             0.0       0       0
      14           -34.0    1.591026e-06             6.0       0       0
      15           -15.0            -6.0             0.0       0       0
      16           -20.0        8.000001             0.0       0       0
      17           -15.0        8.000001             0.0       0       0
      18           -15.0    7.019235e-07            -8.0       0       0
      19           -20.0    9.358979e-07            -8.0       0       0
      20           -34.0    1.591026e-06            -8.0       0       0
$ ... 23848 like lines cut
*END
