*KEYWORD
*ELEMENT_SOLID
$#   eid     pid
       1       1
$#    n1      n2      n3      n4      n5      n6      n7      n8      n9     n10
    1906    1907   10183   10080      14      15    1095    1094                
       2       1
    1907    1908   10184   10183      15      16    1096    1095                
       3       1
    1908    1909   10185   10184      16      17    1097    1096                
       4       1
    1909      22    1110   10185      17       1      18    1097                
       5       1
    1910    1911   10186   10079    1906    1907   10183   10080                
       6       1
    1911    1912   10187   10186    1907    1908   10184   10183                
       7       1
    1912    1913   10188   10187    1908    1909   10185   10184                
       8       1
    1913      23    1111   10188    1909      22    1110   10185                
       9       1
    1914    1915   10189   10078    1910    1911   10186   10079                
      10       1
    1915    1916   10190   10189    1911    1912   10187   10186                
      11       1
$ ... 38379 like lines cut
*MAT_ELASTIC_TITLE
$#                                                                         title
SOLID                                                                           
$#     mid        ro         e        pr        da        db    unused
         1  2.73e-09  210000.0       0.3       0.0       0.0       0.0
*NODE
$#   nid               x               y               z      tc      rc
       1            50.0            45.0             0.0       0       0
       2            50.0            40.0             0.0       0       0
       3            50.0            40.0            -5.0       0       0
       4          -150.0            45.0             0.0       0       0
       5          -150.0            40.0             0.0       0       0
       6          -150.0            40.0            -5.0       0       0
       7          -150.0            40.0             5.0       0       0
       8            50.0            40.0             5.0       0       0
       9          -150.0            35.0             0.0       0       0
      10            50.0            35.0             0.0       0       0
      11            50.0        40.97545       -4.903926       0       0
      12            50.0        41.91342       -4.619398       0       0
      13            50.0        42.77785       -4.157348       0       0
      14            50.0        43.53553       -3.535534       0       0
      15            50.0        44.15735       -2.777851       0       0
      16            50.0         44.6194       -1.913417       0       0
      17            50.0        44.90393      -0.9754516       0       0
      18            50.0            44.0             0.0       0       0
      19            50.0            43.0             0.0       0       0
      20            50.0            42.0             0.0       0       0
$ ... 22693 like lines cut
*PART
$#                                                             heading
AS1_PE_203-37-1.SET-1                                                 
$#     pid     secid       mid     eosid      hgid      grav    adpopt      tmid
         1         1         1         0         0         0         0         0
*SECTION_SOLID_TITLE
$#                                                                         title
SOLID                                                                           
$#   secid    elform       aet    unused    unused    unused    cohoff   gaskeit
         1         1         0                                                  
*END