*KEYWORD
*ELEMENT_SOLID
$#   eid     pid
       1       1
$#    n1      n2      n3      n4      n5      n6      n7      n8      n9     n10
     109    1508    1503     110    1699    7914    7909    1698                
       2       1
    1508    1509    1504    1503    7914    7915    7910    7909                
       3       1
    1509    1510    1505    1504    7915    7916    7911    7910                
       4       1
    1510    1511    1506    1505    7916    7917    7912    7911                
       5       1
    1511    1512    1507    1506    7917    7918    7913    7912                
       6       1
    1512     132     131    1507    7918    1808    1809    7913                
       7       1
     108    1513    1508     109    1700    7919    7914    1699                
       8       1
    1513    1514    1509    1508    7919    7920    7915    7914                
       9       1
    1514    1515    1510    1509    7920    7921    7916    7915                
      10       1
    1515    1516    1511    1510    7921    7922    7917    7916                
      11       1
$ ... 25479 like lines cut
*MAT_ELASTIC_TITLE
$#                                                                         title
SOLID                                                                           
$#     mid        ro         e        pr        da        db    unused
         1  2.73e-09  210000.0       0.3       0.0       0.0       0.0
*NODE
$#   nid               x               y               z      tc      rc
       1            -7.5            10.0            50.0       0       0
       2            3.75            10.0            50.0       0       0
       3            3.75            10.0        12.99038       0       0
       4            -2.5            10.0        12.99038       0       0
       5            -7.5            10.0        17.99038       0       0
       6            3.75             0.0        12.99038       0       0
       7            3.75             0.0            50.0       0       0
       8            -7.5             0.0            50.0       0       0
       9            -7.5             0.0        17.99038       0       0
      10            -2.5             0.0        12.99038       0       0
      11            3.75            10.0             0.0       0       0
      12            -7.5            10.0             0.0       0       0
      13            -7.5            10.0        7.990381       0       0
      14            3.75             0.0             0.0       0       0
      15            -7.5             0.0        7.990381       0       0
      16            -7.5             0.0             0.0       0       0
      17            -7.5            10.0       -17.99038       0       0
      18            -2.5            10.0       -12.99038       0       0
      19            3.75            10.0       -12.99038       0       0
      20            3.75            10.0           -50.0       0       0
$ ... 16096 like lines cut
*PART
$#                                                             heading
AS1_PE_203-13-1.SET-6                                                 
$#     pid     secid       mid     eosid      hgid      grav    adpopt      tmid
         1         1         1         0         0         0         0         0
*SECTION_SOLID_TITLE
$#                                                                         title
SOLID                                                                           
$#   secid    elform       aet    unused    unused    unused    cohoff   gaskeit
         1         1         0                                                  
*END