*KEYWORD
*ELEMENT_SOLID
$#   eid     pid
       1       1
$#    n1      n2      n3      n4      n5      n6      n7      n8      n9     n10
     769     770    3525    3241      27      28     538     537                
       2       1
     770     771    3526    3525      28      29     539     538                
       3       1
     771      36     567    3526      29       1      30     539                
       4       1
    3241    3525    3527    3242     537     538     541     540                
       5       1
    3525    3526    3528    3527     538     539     542     541                
       6       1
    3526     567     568    3528     539      30      31     542                
       7       1
    3242    3527    3529    3243     540     541     544     543                
       8       1
    3527    3528    3530    3529     541     542     545     544                
       9       1
    3528     568     569    3530     542      31      32     545                
      10       1
    3243    3529    3531    3244     543     544     547     546                
      11       1
$ ... 10779 like lines cut
*MAT_ELASTIC_TITLE
$#                                                                         title
SOLID                                                                           
$#     mid        ro         e        pr        da        db    unused
         1  2.73e-09  210000.0       0.3       0.0       0.0       0.0
*NODE
$#   nid               x               y               z      tc      rc
       1             7.5           -20.0             0.0       0       0
       2            10.0           -20.0             0.0       0       0
       3            10.0           -23.0             0.0       0       0
       4             7.5           -23.0             0.0       0       0
       5             7.5           -20.0            10.0       0       0
       6            15.0           -20.0            10.0       0       0
       7            15.0           -20.0             5.0       0       0
       8             7.5           -23.0            10.0       0       0
       9            15.0           -23.0             5.0       0       0
      10            15.0           -23.0            10.0       0       0
      11            20.0           -20.0             0.0       0       0
      12            22.5           -20.0             0.0       0       0
      13            22.5           -23.0             0.0       0       0
      14            20.0           -23.0             0.0       0       0
      15            22.5           -20.0           -10.0       0       0
      16            15.0           -20.0           -10.0       0       0
      17            15.0           -20.0            -5.0       0       0
      18            22.5           -23.0           -10.0       0       0
      19            15.0           -23.0            -5.0       0       0
      20            15.0           -23.0           -10.0       0       0
$ ... 6994 like lines cut
*PART
$#                                                             heading
AS1_PE_203-3-1.SET-1                                                  
$#     pid     secid       mid     eosid      hgid      grav    adpopt      tmid
         1         1         1         0         0         0         0         0
*SECTION_SOLID_TITLE
$#                                                                         title
SOLID                                                                           
$#   secid    elform       aet    unused    unused    unused    cohoff   gaskeit
         1         1         0                                                  
*END